data/datasets/lanl4/Knitro_lanl4.json
{"solve_time":1.284896969795227,"optimizer":"Knitro","termination_status":"LOCALLY_SOLVED","dual_status":"FEASIBLE_POINT","primal_status":"FEASIBLE_POINT","objective":-1.0996952653586226e-20,"solution":{"branch":{"1":{"qf":[-0.003],"qt":[0.002999933672345341],"pt":[0.005999998836029897],"pf":[-0.006]},"2":{"qf":[-0.00899986742982207],"qt":[0.008999801451364451],"pt":[0.018000000000000002],"pf":[-0.017999999243448358]},"3":{"qf":[-0.005999933672345341],"qt":[0.00599986742982207],"pt":[0.011999999243448358],"pf":[-0.011999998836029896]}},"gen":{"1":{"qg_bus":[0.008999801451364451],"qg":[0.008999801451364451],"gen_status":1.0,"pg":[0.018000000000000002],"pg_bus":[0.018000000000000002]}},"multiinfrastructure":false,"settings":{"sbase_default":100000.0,"vbases_default":{"3":0.4},"voltage_scale_factor":1000.0,"sbase":100000.0,"power_scale_factor":1000.0,"base_frequency":60.0},"multinetwork":false,"switch":{"1":{"state":1.0,"qf":[-0.003],"pf":[-0.006],"qt":[0.003],"z":[0.0],"pt":[0.006],"y":[0.0]},"2":{"state":1.0,"qf":[-0.00899986742982207],"pf":[-0.017999999243448358],"qt":[0.00899986742982207],"z":[-1.0332313031399869e-20],"pt":[0.017999999243448358],"y":[0.0]},"3":{"state":1.0,"qf":[-0.005999933672345341],"pf":[-0.011999998836029896],"qt":[0.005999933672345341],"z":[-6.646396221863577e-22],"pt":[0.011999998836029896],"y":[0.0]}},"load":{"1":{"qd_bus":[0.003],"status":0.4999999997569821,"pd_bus":[0.006],"qd":[0.003],"pd":[0.006]},"2":{"qd_bus":[0.003],"status":0.4999999997569821,"pd_bus":[0.006],"qd":[0.003],"pd":[0.006]},"3":{"qd_bus":[0.003],"status":0.4999999997569821,"pd_bus":[0.006],"qd":[0.003],"pd":[0.006]}},"bus":{"4":{"va":[-1.0440517071394454e9],"vm":[179.833620469932]},"1":{"va":[-1.0440517071394454e9],"vm":[179.83362828963604]},"5":{"va":[-1.0440517071394454e9],"vm":[179.833620469932]},"2":{"va":[-1.0440517071394454e9],"vm":[179.8336230765018]},"6":{"va":[-1.0440517071394454e9],"vm":[179.83362828963604]},"7":{"va":[-1.0440517071394454e9],"vm":[179.8336230765018]},"3":{"va":[-1.0440517071394454e9],"vm":[179.83363610933466]}},"per_unit":true},"mip_gap":-2.212990889592235e-16,"objective_lb":2.212880920065699e-16}